Circuit: * C:\Users\migue\OneDrive\Escritorio\2º DE CARRERA\Circuitos electrónicos\Draft4.asc

Direct Newton iteration for .op point succeeded.

Date: Sat Nov 27 20:03:20 2021
Total elapsed time: 0.064 seconds.

tnom = 27
temp = 27
method = trap
totiter = 3
traniter = 0
tranpoints = 0
accept = 0
rejected = 0
matrix size = 10
fillins = 1
solver = Normal
Matrix Compiler1:      27 opcodes
Matrix Compiler2: 844 bytes object code size
