Circuit: * C:\Users\migue\OneDrive\Escritorio\2º DE CARRERA\Circuitos electrónicos\Draft2.asc


Date: Mon Oct 11 14:09:22 2021
Total elapsed time: 0.032 seconds.

tnom = 27
temp = 27
method = trap
totiter = 0
traniter = 0
tranpoints = 0
accept = 0
rejected = 0
matrix size = 5
fillins = 2
solver = Normal

