Circuit: * C:\Users\migue\OneDrive\Escritorio\2º DE CARRERA\Circuitos electrónicos\Draft5.asc

Direct Newton iteration for .op point succeeded.

Date: Sun Nov 28 19:55:38 2021
Total elapsed time: 0.047 seconds.

tnom = 27
temp = 27
method = trap
totiter = 3
traniter = 0
tranpoints = 0
accept = 0
rejected = 0
matrix size = 10
fillins = 1
solver = Normal
Matrix Compiler1:      26 opcodes
Matrix Compiler2: 850 bytes object code size
