Circuit: * C:\Users\migue\OneDrive\Escritorio\2º DE CARRERA\Circuitos electrónicos\Draft1.asc

Direct Newton iteration for .op point succeeded.

Date: Sun Oct 03 19:48:32 2021
Total elapsed time: 2.270 seconds.

tnom = 27
temp = 27
method = trap
totiter = 3
traniter = 0
tranpoints = 0
accept = 0
rejected = 0
matrix size = 3
fillins = 0
solver = Normal
Matrix Compiler1: 50 bytes object code size
Matrix Compiler2: 175 bytes object code size
