Circuit: * C:\Users\migue\OneDrive\Escritorio\2º DE CARRERA\Circuitos electrónicos\Draft3.asc

Direct Newton iteration for .op point succeeded.

Date: Sat Nov 27 20:18:41 2021
Total elapsed time: 0.015 seconds.

tnom = 27
temp = 27
method = trap
totiter = 3
traniter = 0
tranpoints = 0
accept = 0
rejected = 0
matrix size = 9
fillins = 1
solver = Normal
Matrix Compiler1:      26 opcodes
Matrix Compiler2: 765 bytes object code size
